# File generated by Flopy version 3.10.0 on 04/26/2026 at 22:09:41.
BEGIN options
  READASARRAYS
END options

BEGIN period  1
  recharge
    INTERNAL  FACTOR  1.0
    1.00000000E-04  1.00000000E-04  1.00000000E-04  1.00000000E-04  1.00000000E-04  1.00000000E-04  1.00000000E-04  1.00000000E-04  1.00000000E-04  1.00000000E-04
    1.00000000E-04  1.00000000E-04  1.00000000E-04  1.00000000E-04  1.00000000E-04  1.00000000E-04  1.00000000E-04  1.00000000E-04  1.00000000E-04  1.00000000E-04
    1.00000000E-04  1.00000000E-04  1.00000000E-04  1.00000000E-04  1.00000000E-04  1.00000000E-04  1.00000000E-04  1.00000000E-04  1.00000000E-04  1.00000000E-04
    1.00000000E-04  1.00000000E-04  1.00000000E-04  1.00000000E-04  1.00000000E-04  1.00000000E-04  1.00000000E-04  1.00000000E-04  1.00000000E-04  1.00000000E-04
    1.00000000E-04  1.00000000E-04  1.00000000E-04  1.00000000E-04  1.00000000E-04  1.00000000E-04  1.00000000E-04  1.00000000E-04  1.00000000E-04  1.00000000E-04
    1.00000000E-04  1.00000000E-04  1.00000000E-04  1.00000000E-04  1.00000000E-04  1.00000000E-04  1.00000000E-04  1.00000000E-04  1.00000000E-04  1.00000000E-04
    1.00000000E-04  1.00000000E-04  1.00000000E-04  1.00000000E-04  1.00000000E-04  1.00000000E-04  1.00000000E-04  1.00000000E-04  1.00000000E-04  1.00000000E-04
    1.00000000E-04  1.00000000E-04  1.00000000E-04  1.00000000E-04  1.00000000E-04  1.00000000E-04  1.00000000E-04  1.00000000E-04  1.00000000E-04  1.00000000E-04
    1.00000000E-04  1.00000000E-04  1.00000000E-04  1.00000000E-04  1.00000000E-04  1.00000000E-04  1.00000000E-04  1.00000000E-04  1.00000000E-04  1.00000000E-04
    1.00000000E-04  1.00000000E-04  1.00000000E-04  1.00000000E-04  1.00000000E-04  1.00000000E-04  1.00000000E-04  1.00000000E-04  1.00000000E-04  1.00000000E-04
END period  1

