# File generated by Flopy version 3.10.0 on 04/26/2026 at 22:39:16.
BEGIN options
  BUDGET  FILEOUT  mf6_03_recharge.cbc
  HEAD  FILEOUT  mf6_03_recharge.hds
END options

BEGIN period  1
  SAVE  HEAD  ALL
  SAVE  BUDGET  ALL
  PRINT  BUDGET  LAST
END period  1

