# File generated by Flopy version 3.10.0 on 04/26/2026 at 22:39:16.
BEGIN options
  TIME_UNITS  days
END options

BEGIN dimensions
  NPER  1
END dimensions

BEGIN perioddata
       1.00000000  1       1.00000000
END perioddata

