# File generated by Flopy version 3.10.0 on 04/26/2026 at 22:09:41.
BEGIN options
  COMPLEXITY  simple
END options

BEGIN linear
  LINEAR_ACCELERATION  cg
END linear

