# File generated by Flopy version 3.10.0 on 04/26/2026 at 22:39:16.
BEGIN options
END options

BEGIN timing
  TDIS6  mf6_03_recharge.tdis
END timing

BEGIN models
  gwf6  gwf.nam  gwf
END models

BEGIN exchanges
END exchanges

BEGIN solutiongroup  1
  ims6  mf6_03_recharge.ims  gwf
END solutiongroup  1

