# File generated by Flopy version 3.10.0 on 04/27/2026 at 19:36:14.
BEGIN options
  BUDGET  FILEOUT  mf6_06_multilayer_leakage.cbc
  HEAD  FILEOUT  mf6_06_multilayer_leakage.hds
END options

BEGIN period  1
  SAVE  HEAD  ALL
  SAVE  BUDGET  ALL
  PRINT  BUDGET  LAST
END period  1

