# File generated by Flopy version 3.10.0 on 04/27/2026 at 19:36:14.
BEGIN options
  READASARRAYS
END options

BEGIN period  1
  recharge
    CONSTANT  1.00000000E-04
END period  1

