# File generated by Flopy version 3.10.0 on 04/27/2026 at 19:36:14.
BEGIN options
  SAVE_SPECIFIC_DISCHARGE
END options

BEGIN griddata
  icelltype
    CONSTANT  0
  k  LAYERED
    CONSTANT      10.00000000
    CONSTANT       2.00000000
    CONSTANT      10.00000000
  k33  LAYERED
    CONSTANT       1.00000000
    CONSTANT       0.05000000
    CONSTANT       1.00000000
END griddata

