# File generated by Flopy version 3.10.0 on 04/27/2026 at 19:36:14.
BEGIN options
END options

BEGIN dimensions
  MAXBOUND  1
END dimensions

BEGIN period  1
  2 6 6 -7.00000000E+02
END period  1

