# File generated by Flopy version 3.10.0 on 04/27/2026 at 19:36:14.
BEGIN options
END options

BEGIN dimensions
  MAXBOUND  60
END dimensions

BEGIN period  1
  1 1 1 1.00000000E+01
  1 1 10 0.00000000E+00
  1 2 1 1.00000000E+01
  1 2 10 0.00000000E+00
  1 3 1 1.00000000E+01
  1 3 10 0.00000000E+00
  1 4 1 1.00000000E+01
  1 4 10 0.00000000E+00
  1 5 1 1.00000000E+01
  1 5 10 0.00000000E+00
  1 6 1 1.00000000E+01
  1 6 10 0.00000000E+00
  1 7 1 1.00000000E+01
  1 7 10 0.00000000E+00
  1 8 1 1.00000000E+01
  1 8 10 0.00000000E+00
  1 9 1 1.00000000E+01
  1 9 10 0.00000000E+00
  1 10 1 1.00000000E+01
  1 10 10 0.00000000E+00
  2 1 1 1.00000000E+01
  2 1 10 0.00000000E+00
  2 2 1 1.00000000E+01
  2 2 10 0.00000000E+00
  2 3 1 1.00000000E+01
  2 3 10 0.00000000E+00
  2 4 1 1.00000000E+01
  2 4 10 0.00000000E+00
  2 5 1 1.00000000E+01
  2 5 10 0.00000000E+00
  2 6 1 1.00000000E+01
  2 6 10 0.00000000E+00
  2 7 1 1.00000000E+01
  2 7 10 0.00000000E+00
  2 8 1 1.00000000E+01
  2 8 10 0.00000000E+00
  2 9 1 1.00000000E+01
  2 9 10 0.00000000E+00
  2 10 1 1.00000000E+01
  2 10 10 0.00000000E+00
  3 1 1 1.00000000E+01
  3 1 10 0.00000000E+00
  3 2 1 1.00000000E+01
  3 2 10 0.00000000E+00
  3 3 1 1.00000000E+01
  3 3 10 0.00000000E+00
  3 4 1 1.00000000E+01
  3 4 10 0.00000000E+00
  3 5 1 1.00000000E+01
  3 5 10 0.00000000E+00
  3 6 1 1.00000000E+01
  3 6 10 0.00000000E+00
  3 7 1 1.00000000E+01
  3 7 10 0.00000000E+00
  3 8 1 1.00000000E+01
  3 8 10 0.00000000E+00
  3 9 1 1.00000000E+01
  3 9 10 0.00000000E+00
  3 10 1 1.00000000E+01
  3 10 10 0.00000000E+00
END period  1

