# File generated by Flopy version 3.10.0 on 04/27/2026 at 19:36:14.
BEGIN options
  COMPLEXITY  simple
END options

BEGIN linear
  LINEAR_ACCELERATION  cg
END linear

