# File generated by Flopy version 3.10.0 on 04/27/2026 at 19:36:14.
BEGIN options
END options

BEGIN timing
  TDIS6  mf6_06_multilayer_leakage.tdis
END timing

BEGIN models
  gwf6  gwf.nam  gwf
END models

BEGIN exchanges
END exchanges

BEGIN solutiongroup  1
  ims6  mf6_06_multilayer_leakage.ims  gwf
END solutiongroup  1

