# File generated by Flopy version 3.10.0 on 04/28/2026 at 01:16:51.
BEGIN options
  BUDGET  FILEOUT  mf6_07_transient_sto.cbc
  HEAD  FILEOUT  mf6_07_transient_sto.hds
END options

BEGIN period  1
  SAVE  HEAD  ALL
  SAVE  BUDGET  ALL
  PRINT  BUDGET  LAST
END period  1

