# File generated by Flopy version 3.10.0 on 04/28/2026 at 01:16:51.
BEGIN options
END options

BEGIN griddata
  iconvert
    CONSTANT  0
  ss
    CONSTANT  1.00000000E-05
  sy
    CONSTANT       0.15000000
END griddata

BEGIN period  1
  STEADY-STATE
END period  1

BEGIN period  2
  TRANSIENT
END period  2

BEGIN period  3
  TRANSIENT
END period  3

