# File generated by Flopy version 3.10.0 on 04/28/2026 at 01:16:51.
BEGIN options
  SAVE_SPECIFIC_DISCHARGE
END options

BEGIN griddata
  icelltype
    CONSTANT  0
  k
    CONSTANT      10.00000000
END griddata

