# File generated by Flopy version 3.10.0 on 04/28/2026 at 01:16:51.
BEGIN options
END options

BEGIN dimensions
  MAXBOUND  1
END dimensions

BEGIN period  1
  1 6 6 0.00000000E+00
END period  1

BEGIN period  2
  1 6 6 -5.00000000E+02
END period  2

BEGIN period  3
  1 6 6 0.00000000E+00
END period  3

