# File generated by Flopy version 3.10.0 on 04/28/2026 at 01:16:51.
BEGIN options
  COMPLEXITY  simple
END options

BEGIN linear
  LINEAR_ACCELERATION  cg
END linear

