# File generated by Flopy version 3.10.0 on 04/28/2026 at 01:16:51.
BEGIN options
END options

BEGIN timing
  TDIS6  mf6_07_transient_sto.tdis
END timing

BEGIN models
  gwf6  gwf.nam  gwf
END models

BEGIN exchanges
END exchanges

BEGIN solutiongroup  1
  ims6  mf6_07_transient_sto.ims  gwf
END solutiongroup  1

