# File generated by Flopy version 3.10.0 on 04/26/2026 at 17:28:15.
BEGIN options
  BUDGET  FILEOUT  mf6_01_confined.cbc
  HEAD  FILEOUT  mf6_01_confined.hds
END options

BEGIN period  1
  SAVE  HEAD  ALL
  SAVE  BUDGET  ALL
  PRINT  BUDGET  LAST
END period  1

