# File generated by Flopy version 3.10.0 on 04/26/2026 at 17:28:15.
BEGIN options
END options

BEGIN dimensions
  MAXBOUND  20
END dimensions

BEGIN period  1
  1 1 1 1.00000000E+01
  1 1 10 0.00000000E+00
  1 2 1 1.00000000E+01
  1 2 10 0.00000000E+00
  1 3 1 1.00000000E+01
  1 3 10 0.00000000E+00
  1 4 1 1.00000000E+01
  1 4 10 0.00000000E+00
  1 5 1 1.00000000E+01
  1 5 10 0.00000000E+00
  1 6 1 1.00000000E+01
  1 6 10 0.00000000E+00
  1 7 1 1.00000000E+01
  1 7 10 0.00000000E+00
  1 8 1 1.00000000E+01
  1 8 10 0.00000000E+00
  1 9 1 1.00000000E+01
  1 9 10 0.00000000E+00
  1 10 1 1.00000000E+01
  1 10 10 0.00000000E+00
END period  1

