# File generated by Flopy version 3.10.0 on 04/28/2026 at 02:13:40.
BEGIN options
END options

BEGIN griddata
  strt
    INTERNAL  FACTOR  1.0
         5.00000000       5.00000000       5.00000000       5.00000000       5.00000000       5.00000000       5.00000000       5.00000000       5.00000000       5.00000000
         5.00000000       5.00000000       5.00000000       5.00000000       5.00000000       5.00000000       5.00000000       5.00000000       5.00000000       5.00000000
         5.00000000       5.00000000       5.00000000       5.00000000       5.00000000       5.00000000       5.00000000       5.00000000       5.00000000       5.00000000
         5.00000000       5.00000000       5.00000000       5.00000000       5.00000000       5.00000000       5.00000000       5.00000000       5.00000000       5.00000000
         5.00000000       5.00000000       5.00000000       5.00000000       5.00000000       5.00000000       5.00000000       5.00000000       5.00000000       5.00000000
         5.00000000       5.00000000       5.00000000       5.00000000       5.00000000       5.00000000       5.00000000       5.00000000       5.00000000       5.00000000
         5.00000000       5.00000000       5.00000000       5.00000000       5.00000000       5.00000000       5.00000000       5.00000000       5.00000000       5.00000000
         5.00000000       5.00000000       5.00000000       5.00000000       5.00000000       5.00000000       5.00000000       5.00000000       5.00000000       5.00000000
         5.00000000       5.00000000       5.00000000       5.00000000       5.00000000       5.00000000       5.00000000       5.00000000       5.00000000       5.00000000
         5.00000000       5.00000000       5.00000000       5.00000000       5.00000000       5.00000000       5.00000000       5.00000000       5.00000000       5.00000000
END griddata

