# File generated by Flopy version 3.10.0 on 04/28/2026 at 02:13:40.
BEGIN options
  BUDGET  FILEOUT  mf6_08_observations_csv.cbc
  HEAD  FILEOUT  mf6_08_observations_csv.hds
END options

BEGIN period  1
  SAVE  HEAD  ALL
  SAVE  BUDGET  ALL
  PRINT  BUDGET  LAST
END period  1

