# File generated by Flopy version 3.10.0 on 04/28/2026 at 02:13:40.
BEGIN options
END options

BEGIN dimensions
  NLAY  1
  NROW  10
  NCOL  10
END dimensions

BEGIN griddata
  delr
    CONSTANT     100.00000000
  delc
    CONSTANT     100.00000000
  top
    CONSTANT      10.00000000
  botm
    CONSTANT       0.00000000
END griddata

