# File generated by Flopy version 3.10.0 on 04/28/2026 at 02:13:40.
BEGIN options
  SAVE_FLOWS
END options

BEGIN packages
  DIS6  gwf.dis  dis
  IC6  gwf.ic  ic
  NPF6  gwf.npf  npf
  STO6  gwf.sto  sto
  CHD6  gwf.chd  chd_0
  WEL6  gwf.wel  wel_0
  OBS6  gwf.obs  obs
  OC6  gwf.oc  oc
END packages

