# File generated by Flopy version 3.10.0 on 04/28/2026 at 02:13:40.
BEGIN options
  PRINT_INPUT
END options

BEGIN continuous  FILEOUT  head_observations.csv
  h_center  HEAD  1 6 6
  h_upgradient  HEAD  1 6 3
  h_downgradient  HEAD  1 6 9
END continuous  FILEOUT  head_observations.csv

