# File generated by Flopy version 3.10.0 on 04/28/2026 at 02:13:40.
BEGIN options
  TIME_UNITS  days
END options

BEGIN dimensions
  NPER  3
END dimensions

BEGIN perioddata
       1.00000000  1       1.00000000
      30.00000000  30       1.00000000
      30.00000000  30       1.00000000
END perioddata

