# File generated by Flopy version 3.10.0 on 04/28/2026 at 02:13:40.
BEGIN options
END options

BEGIN timing
  TDIS6  mf6_08_observations_csv.tdis
END timing

BEGIN models
  gwf6  gwf.nam  gwf
END models

BEGIN exchanges
END exchanges

BEGIN solutiongroup  1
  ims6  mf6_08_observations_csv.ims  gwf
END solutiongroup  1

