# File generated by Flopy version 3.10.0 on 04/26/2026 at 19:30:21.
BEGIN options
  BUDGET  FILEOUT  mf6_02_heterogeneous_k.cbc
  HEAD  FILEOUT  mf6_02_heterogeneous_k.hds
END options

BEGIN period  1
  SAVE  HEAD  ALL
  SAVE  BUDGET  ALL
  PRINT  BUDGET  LAST
END period  1

