# File generated by Flopy version 3.10.0 on 04/26/2026 at 19:30:21.
BEGIN options
END options

BEGIN griddata
  icelltype
    CONSTANT  0
  k
    INTERNAL  FACTOR  1.0
        10.00000000      10.00000000      10.00000000      10.00000000      10.00000000      10.00000000      10.00000000      10.00000000      10.00000000      10.00000000
        10.00000000      10.00000000      10.00000000      10.00000000      10.00000000      10.00000000      10.00000000      10.00000000      10.00000000      10.00000000
        10.00000000      10.00000000      10.00000000      10.00000000      10.00000000      10.00000000      10.00000000      10.00000000      10.00000000      10.00000000
        10.00000000      10.00000000      10.00000000       1.00000000       1.00000000       1.00000000       1.00000000      10.00000000      10.00000000      10.00000000
        10.00000000      10.00000000      10.00000000       1.00000000       1.00000000       1.00000000       1.00000000      10.00000000      10.00000000      10.00000000
        10.00000000      10.00000000      10.00000000       1.00000000       1.00000000       1.00000000       1.00000000      10.00000000      10.00000000      10.00000000
        10.00000000      10.00000000      10.00000000       1.00000000       1.00000000       1.00000000       1.00000000      10.00000000      10.00000000      10.00000000
        10.00000000      10.00000000      10.00000000      10.00000000      10.00000000      10.00000000      10.00000000      10.00000000      10.00000000      10.00000000
        10.00000000      10.00000000      10.00000000      10.00000000      10.00000000      10.00000000      10.00000000      10.00000000      10.00000000      10.00000000
        10.00000000      10.00000000      10.00000000      10.00000000      10.00000000      10.00000000      10.00000000      10.00000000      10.00000000      10.00000000
END griddata

