# File generated by Flopy version 3.10.0 on 04/26/2026 at 19:30:21.
BEGIN options
  SAVE_FLOWS
END options

BEGIN packages
  DIS6  gwf.dis  dis
  IC6  gwf.ic  ic
  NPF6  gwf.npf  npf
  CHD6  gwf.chd  chd_0
  OC6  gwf.oc  oc
END packages

