# File generated by Flopy version 3.10.0 on 04/26/2026 at 20:25:56.
BEGIN options
END options

BEGIN timing
  TDIS6  mf6_02_heterogeneous_k.tdis
END timing

BEGIN models
  gwf6  gwf.nam  gwf
END models

BEGIN exchanges
END exchanges

BEGIN solutiongroup  1
  ims6  mf6_02_heterogeneous_k.ims  gwf
END solutiongroup  1

