# File generated by Flopy version 3.10.0 on 04/26/2026 at 23:02:34.
BEGIN options
END options

BEGIN griddata
  icelltype
    CONSTANT  0
  k
    CONSTANT      10.00000000
END griddata

