# File generated by Flopy version 3.10.0 on 04/26/2026 at 23:02:34.
BEGIN options
END options

BEGIN dimensions
  MAXBOUND  1
END dimensions

BEGIN period  1
  1 6 6 -5.00000000E+02
END period  1

