# File generated by Flopy version 3.10.0 on 04/26/2026 at 23:02:34.
BEGIN options
  BUDGET  FILEOUT  mf6_04_pumping_well.cbc
  HEAD  FILEOUT  mf6_04_pumping_well.hds
END options

BEGIN period  1
  SAVE  HEAD  ALL
  SAVE  BUDGET  ALL
  PRINT  BUDGET  LAST
END period  1

