# File generated by Flopy version 3.10.0 on 04/26/2026 at 23:02:34.
BEGIN options
END options

BEGIN timing
  TDIS6  mf6_04_pumping_well.tdis
END timing

BEGIN models
  gwf6  gwf.nam  gwf
END models

BEGIN exchanges
END exchanges

BEGIN solutiongroup  1
  ims6  mf6_04_pumping_well.ims  gwf
END solutiongroup  1

