# File generated by Flopy version 3.10.0 on 04/26/2026 at 23:45:11.
BEGIN options
END options

BEGIN dimensions
  MAXBOUND  8
END dimensions

BEGIN period  1
  1 1 2 7.00000000E+00 2.00000000E+01
  1 1 3 7.00000000E+00 2.00000000E+01
  1 1 4 7.00000000E+00 2.00000000E+01
  1 1 5 7.00000000E+00 2.00000000E+01
  1 1 6 7.00000000E+00 2.00000000E+01
  1 1 7 7.00000000E+00 2.00000000E+01
  1 1 8 7.00000000E+00 2.00000000E+01
  1 1 9 7.00000000E+00 2.00000000E+01
END period  1

